tests/data/power_flow/pandapower/components/asymmetric/pandapower-asymmetric-node/pgm_asym_output.json
{
  "line": [
    {
      "id": 3,
      "energized": 1,
      "loading": 0.001904519247934584,
      "p_from": [
        0.2267067126617567,
        0.22670671047386737,
        0.22670669776759614
      ],
      "q_from": [
        -11545.534352724952,
        -11545.534352728697,
        -11545.534352727618
      ],
      "i_from": [
        1.9045192479339663,
        1.904519247934584,
        1.9045192479344066
      ],
      "s_from": [
        11545.534354950745,
        11545.534354954489,
        11545.534354953412
      ],
      "p_to": [
        3.7206268290094453e-13,
        1.357720145898874e-08,
        1.64101691568292e-08
      ],
      "q_to": [
        9.474200769652506e-09,
        1.4040713731182677e-08,
        9.473556338182121e-09
      ],
      "i_to": [
        1.5627887229021982e-12,
        3.2217714875249462e-12,
        3.1255774458043964e-12
      ],
      "s_to": [
        9.47420077695817e-09,
        1.9531565260853715e-08,
        1.894840155391634e-08
      ]
    }
  ],
  "node": [
    {
      "id": 1,
      "energized": 1,
      "u_pu": [
        1.0000000000000004,
        1.0000000000000004,
        1.0000000000000002
      ],
      "u": [
        6062.1778264910745,
        6062.1778264910745,
        6062.177826491073
      ],
      "u_angle": [
        -1.5184016656962496e-17,
        -2.0943951023931957,
        2.0943951023931957
      ]
    },
    {
      "id": 2,
      "energized": 1,
      "u_pu": [
        1.0000314161423924,
        1.0000314161423924,
        1.0000314161423924
      ],
      "u": [
        6062.368276732877,
        6062.368276732877,
        6062.368276732877
      ],
      "u_angle": [
        -3.9271141888976795e-05,
        -2.0944343735350843,
        2.0943558312513066
      ]
    },
    {
      "id": 5,
      "energized": 0,
      "u_pu": [
        0.0,
        0.0,
        0.0
      ],
      "u": [
        0.0,
        0.0,
        0.0
      ],
      "u_angle": [
        0.0,
        0.0,
        0.0
      ]
    }
  ],
  "source": [
    {
      "id": 10,
      "energized": 1,
      "p": [
        -969.3288895577477,
        -2630.54069027215,
        -2179.4460602906183
      ],
      "q": [
        -14779.871523294178,
        -16339.837582176157,
        -13164.024408139088
      ],
      "i": [
        2.443284288699775,
        2.73007954599953,
        2.201060497320609
      ],
      "s": [
        14811.623838769787,
        16550.22768831516,
        13343.22014162241
      ],
      "pf": [
        -0.06544379604216695,
        -0.15894287014125927,
        -0.1633373381506406
      ]
    }
  ]
}